[root]
type=Root
children=system
eventq_index=0
full_system=false
sim_quantum=0
time_sync_enable=false
time_sync_period=100000000000
time_sync_spin_threshold=100000000

[system]
type=System
children=cache_hierarchy clk_domain dvfs_handler memory processor workload
auto_unlink_shared_backstore=false
cache_line_size=64
eventq_index=0
exit_on_work_items=false
init_param=0
m5ops_base=0
mem_mode=timing
mem_ranges=0:536870912
memories=system.memory.module
mmap_using_noreserve=false
multi_thread=false
num_work_ids=16
readfile=
redirect_paths=
shadow_rom_ranges=
shared_backstore=
symbolfile=
thermal_components=
thermal_model=Null
work_begin_ckpt_count=0
work_begin_cpu_id_exit=-1
work_begin_exit_count=0
work_cpus_ckpt_count=0
work_end_ckpt_count=0
work_end_exit_count=0
work_item_id=-1
workload=system.workload
system_port=system.cache_hierarchy.ruby_system.sys_port_proxy.in_ports[0]

[system.cache_hierarchy]
type=SubSystem
children=ruby_system
eventq_index=0
thermal_domain=Null

[system.cache_hierarchy.ruby_system]
type=RubySystem
children=controllers directory_controllers network power_state sys_port_proxy
access_backing_store=false
all_instructions=false
block_size_bytes=64
clk_domain=system.clk_domain
eventq_index=0
hot_lines=false
memory_size_bits=64
num_of_sequencers=1
number_of_virtual_networks=5
phys_mem=Null
power_model=
power_state=system.cache_hierarchy.ruby_system.power_state
randomization=false
system=system

[system.cache_hierarchy.ruby_system.controllers]
type=L1Cache_Controller
children=cacheMemory forwardToCache mandatoryQueue power_state requestFromCache responseFromCache responseToCache sequencer
addr_ranges=0:18446744073709551615
buffer_size=0
cacheMemory=system.cache_hierarchy.ruby_system.controllers.cacheMemory
cache_response_latency=12
clk_domain=system.clk_domain
cluster_id=0
downstream_destinations=
eventq_index=0
forwardToCache=system.cache_hierarchy.ruby_system.controllers.forwardToCache
issue_latency=2
mandatoryQueue=system.cache_hierarchy.ruby_system.controllers.mandatoryQueue
mandatory_queue_latency=1
number_of_TBEs=256
power_model=
power_state=system.cache_hierarchy.ruby_system.controllers.power_state
recycle_latency=10
requestFromCache=system.cache_hierarchy.ruby_system.controllers.requestFromCache
responseFromCache=system.cache_hierarchy.ruby_system.controllers.responseFromCache
responseToCache=system.cache_hierarchy.ruby_system.controllers.responseToCache
ruby_system=system.cache_hierarchy.ruby_system
send_evictions=false
sequencer=system.cache_hierarchy.ruby_system.controllers.sequencer
system=system
transitions_per_cycle=32
upstream_destinations=
version=0

[system.cache_hierarchy.ruby_system.controllers.cacheMemory]
type=RubyCache
children=replacement_policy
assoc=4
atomicALUs=64
atomicLatency=0
block_size=0
dataAccessLatency=1
dataArrayBanks=1
eventq_index=0
is_icache=false
replacement_policy=system.cache_hierarchy.ruby_system.controllers.cacheMemory.replacement_policy
resourceStalls=false
ruby_system=system.cache_hierarchy.ruby_system
size=512
start_index_bit=6
tagAccessLatency=1
tagArrayBanks=1

[system.cache_hierarchy.ruby_system.controllers.cacheMemory.replacement_policy]
type=TreePLRURP
eventq_index=0
num_leaves=4

[system.cache_hierarchy.ruby_system.controllers.forwardToCache]
type=MessageBuffer
allow_zero_latency=false
buffer_size=0
eventq_index=0
max_dequeue_rate=0
ordered=true
randomization=ruby_system
routing_priority=0
in_port=system.cache_hierarchy.ruby_system.network.out_port[0]

[system.cache_hierarchy.ruby_system.controllers.mandatoryQueue]
type=MessageBuffer
allow_zero_latency=false
buffer_size=0
eventq_index=0
max_dequeue_rate=0
ordered=false
randomization=ruby_system
routing_priority=0

[system.cache_hierarchy.ruby_system.controllers.power_state]
type=PowerState
clk_gate_bins=20
clk_gate_max=1000000000000
clk_gate_min=1000
default_state=UNDEFINED
eventq_index=0
leaders=
possible_states=

[system.cache_hierarchy.ruby_system.controllers.requestFromCache]
type=MessageBuffer
allow_zero_latency=false
buffer_size=0
eventq_index=0
max_dequeue_rate=0
ordered=true
randomization=ruby_system
routing_priority=0
out_port=system.cache_hierarchy.ruby_system.network.in_port[0]

[system.cache_hierarchy.ruby_system.controllers.responseFromCache]
type=MessageBuffer
allow_zero_latency=false
buffer_size=0
eventq_index=0
max_dequeue_rate=0
ordered=true
randomization=ruby_system
routing_priority=0
out_port=system.cache_hierarchy.ruby_system.network.in_port[1]

[system.cache_hierarchy.ruby_system.controllers.responseToCache]
type=MessageBuffer
allow_zero_latency=false
buffer_size=0
eventq_index=0
max_dequeue_rate=0
ordered=true
randomization=ruby_system
routing_priority=0
in_port=system.cache_hierarchy.ruby_system.network.out_port[1]

[system.cache_hierarchy.ruby_system.controllers.sequencer]
type=RubySequencer
children=power_state
clk_domain=system.clk_domain
coreid=99
dcache=system.cache_hierarchy.ruby_system.controllers.cacheMemory
deadlock_threshold=500000
eventq_index=0
garnet_standalone=false
is_cpu_sequencer=true
max_outstanding_requests=16
no_retry_on_stall=false
power_model=
power_state=system.cache_hierarchy.ruby_system.controllers.sequencer.power_state
ruby_system=system.cache_hierarchy.ruby_system
support_data_reqs=true
support_inst_reqs=true
system=system
using_ruby_tester=false
version=0
in_ports=system.processor.cores.port_end.req_ports[0] system.processor.cores.generator.port system.processor.cores.port_end.req_ports[1] system.processor.cores.port_end.req_ports[2]

[system.cache_hierarchy.ruby_system.controllers.sequencer.power_state]
type=PowerState
clk_gate_bins=20
clk_gate_max=1000000000000
clk_gate_min=1000
default_state=UNDEFINED
eventq_index=0
leaders=
possible_states=

[system.cache_hierarchy.ruby_system.directory_controllers]
type=Directory_Controller
children=directory dmaRequestToDir dmaResponseFromDir forwardFromDir power_state requestToDir requestToMemory responseFromDir responseFromMemory
addr_ranges=0:536870912
buffer_size=0
clk_domain=system.clk_domain
cluster_id=0
directory=system.cache_hierarchy.ruby_system.directory_controllers.directory
directory_latency=12
dmaRequestToDir=system.cache_hierarchy.ruby_system.directory_controllers.dmaRequestToDir
dmaResponseFromDir=system.cache_hierarchy.ruby_system.directory_controllers.dmaResponseFromDir
downstream_destinations=
eventq_index=0
forwardFromDir=system.cache_hierarchy.ruby_system.directory_controllers.forwardFromDir
mandatory_queue_latency=1
number_of_TBEs=256
power_model=
power_state=system.cache_hierarchy.ruby_system.directory_controllers.power_state
recycle_latency=10
requestToDir=system.cache_hierarchy.ruby_system.directory_controllers.requestToDir
requestToMemory=system.cache_hierarchy.ruby_system.directory_controllers.requestToMemory
responseFromDir=system.cache_hierarchy.ruby_system.directory_controllers.responseFromDir
responseFromMemory=system.cache_hierarchy.ruby_system.directory_controllers.responseFromMemory
ruby_system=system.cache_hierarchy.ruby_system
system=system
to_memory_controller_latency=1
transitions_per_cycle=32
upstream_destinations=
version=0
memory_out_port=system.memory.module.port

[system.cache_hierarchy.ruby_system.directory_controllers.directory]
type=RubyDirectoryMemory
addr_ranges=0:536870912
eventq_index=0

[system.cache_hierarchy.ruby_system.directory_controllers.dmaRequestToDir]
type=MessageBuffer
allow_zero_latency=false
buffer_size=0
eventq_index=0
max_dequeue_rate=0
ordered=true
randomization=ruby_system
routing_priority=0
in_port=system.cache_hierarchy.ruby_system.network.out_port[3]

[system.cache_hierarchy.ruby_system.directory_controllers.dmaResponseFromDir]
type=MessageBuffer
allow_zero_latency=false
buffer_size=0
eventq_index=0
max_dequeue_rate=0
ordered=true
randomization=ruby_system
routing_priority=0
out_port=system.cache_hierarchy.ruby_system.network.in_port[3]

[system.cache_hierarchy.ruby_system.directory_controllers.forwardFromDir]
type=MessageBuffer
allow_zero_latency=false
buffer_size=0
eventq_index=0
max_dequeue_rate=0
ordered=false
randomization=ruby_system
routing_priority=0
out_port=system.cache_hierarchy.ruby_system.network.in_port[4]

[system.cache_hierarchy.ruby_system.directory_controllers.power_state]
type=PowerState
clk_gate_bins=20
clk_gate_max=1000000000000
clk_gate_min=1000
default_state=UNDEFINED
eventq_index=0
leaders=
possible_states=

[system.cache_hierarchy.ruby_system.directory_controllers.requestToDir]
type=MessageBuffer
allow_zero_latency=false
buffer_size=0
eventq_index=0
max_dequeue_rate=0
ordered=true
randomization=ruby_system
routing_priority=0
in_port=system.cache_hierarchy.ruby_system.network.out_port[2]

[system.cache_hierarchy.ruby_system.directory_controllers.requestToMemory]
type=MessageBuffer
allow_zero_latency=false
buffer_size=0
eventq_index=0
max_dequeue_rate=0
ordered=false
randomization=ruby_system
routing_priority=0

[system.cache_hierarchy.ruby_system.directory_controllers.responseFromDir]
type=MessageBuffer
allow_zero_latency=false
buffer_size=0
eventq_index=0
max_dequeue_rate=0
ordered=false
randomization=ruby_system
routing_priority=0
out_port=system.cache_hierarchy.ruby_system.network.in_port[2]

[system.cache_hierarchy.ruby_system.directory_controllers.responseFromMemory]
type=MessageBuffer
allow_zero_latency=false
buffer_size=0
eventq_index=0
max_dequeue_rate=0
ordered=false
randomization=ruby_system
routing_priority=0

[system.cache_hierarchy.ruby_system.network]
type=SimpleNetwork
children=ext_links0 ext_links1 int_links0 int_links1 power_state routers0 routers1
buffer_size=0
clk_domain=system.clk_domain
control_msg_size=8
data_msg_size=64
endpoint_bandwidth=1000
eventq_index=0
ext_links=system.cache_hierarchy.ruby_system.network.ext_links0 system.cache_hierarchy.ruby_system.network.ext_links1
int_links=system.cache_hierarchy.ruby_system.network.int_links0 system.cache_hierarchy.ruby_system.network.int_links1
netifs=
number_of_virtual_networks=5
physical_vnets_bandwidth=
physical_vnets_channels=
power_model=
power_state=system.cache_hierarchy.ruby_system.network.power_state
routers=system.cache_hierarchy.ruby_system.network.routers0 system.cache_hierarchy.ruby_system.network.routers1
ruby_system=system.cache_hierarchy.ruby_system
topology=Not Specified
in_port=system.cache_hierarchy.ruby_system.controllers.requestFromCache.out_port system.cache_hierarchy.ruby_system.controllers.responseFromCache.out_port system.cache_hierarchy.ruby_system.directory_controllers.responseFromDir.out_port system.cache_hierarchy.ruby_system.directory_controllers.dmaResponseFromDir.out_port system.cache_hierarchy.ruby_system.directory_controllers.forwardFromDir.out_port
out_port=system.cache_hierarchy.ruby_system.controllers.forwardToCache.in_port system.cache_hierarchy.ruby_system.controllers.responseToCache.in_port system.cache_hierarchy.ruby_system.directory_controllers.requestToDir.in_port system.cache_hierarchy.ruby_system.directory_controllers.dmaRequestToDir.in_port

[system.cache_hierarchy.ruby_system.network.ext_links0]
type=SimpleExtLink
bandwidth_factor=16
eventq_index=0
ext_node=system.cache_hierarchy.ruby_system.controllers
int_node=system.cache_hierarchy.ruby_system.network.routers0
latency=1
link_id=0
supported_vnets=
weight=1

[system.cache_hierarchy.ruby_system.network.ext_links1]
type=SimpleExtLink
bandwidth_factor=16
eventq_index=0
ext_node=system.cache_hierarchy.ruby_system.directory_controllers
int_node=system.cache_hierarchy.ruby_system.network.routers1
latency=1
link_id=1
supported_vnets=
weight=1

[system.cache_hierarchy.ruby_system.network.int_links0]
type=SimpleIntLink
children=buffers0 buffers1 buffers2 buffers3 buffers4
bandwidth_factor=16
buffers=system.cache_hierarchy.ruby_system.network.int_links0.buffers0 system.cache_hierarchy.ruby_system.network.int_links0.buffers1 system.cache_hierarchy.ruby_system.network.int_links0.buffers2 system.cache_hierarchy.ruby_system.network.int_links0.buffers3 system.cache_hierarchy.ruby_system.network.int_links0.buffers4
dst_inport=
dst_node=system.cache_hierarchy.ruby_system.network.routers1
eventq_index=0
latency=1
link_id=1
src_node=system.cache_hierarchy.ruby_system.network.routers0
src_outport=
supported_vnets=
weight=1

[system.cache_hierarchy.ruby_system.network.int_links0.buffers0]
type=MessageBuffer
allow_zero_latency=false
buffer_size=0
eventq_index=0
max_dequeue_rate=0
ordered=true
randomization=ruby_system
routing_priority=0

[system.cache_hierarchy.ruby_system.network.int_links0.buffers1]
type=MessageBuffer
allow_zero_latency=false
buffer_size=0
eventq_index=0
max_dequeue_rate=0
ordered=true
randomization=ruby_system
routing_priority=0

[system.cache_hierarchy.ruby_system.network.int_links0.buffers2]
type=MessageBuffer
allow_zero_latency=false
buffer_size=0
eventq_index=0
max_dequeue_rate=0
ordered=true
randomization=ruby_system
routing_priority=0

[system.cache_hierarchy.ruby_system.network.int_links0.buffers3]
type=MessageBuffer
allow_zero_latency=false
buffer_size=0
eventq_index=0
max_dequeue_rate=0
ordered=true
randomization=ruby_system
routing_priority=0

[system.cache_hierarchy.ruby_system.network.int_links0.buffers4]
type=MessageBuffer
allow_zero_latency=false
buffer_size=0
eventq_index=0
max_dequeue_rate=0
ordered=true
randomization=ruby_system
routing_priority=0

[system.cache_hierarchy.ruby_system.network.int_links1]
type=SimpleIntLink
children=buffers0 buffers1 buffers2 buffers3 buffers4
bandwidth_factor=16
buffers=system.cache_hierarchy.ruby_system.network.int_links1.buffers0 system.cache_hierarchy.ruby_system.network.int_links1.buffers1 system.cache_hierarchy.ruby_system.network.int_links1.buffers2 system.cache_hierarchy.ruby_system.network.int_links1.buffers3 system.cache_hierarchy.ruby_system.network.int_links1.buffers4
dst_inport=
dst_node=system.cache_hierarchy.ruby_system.network.routers0
eventq_index=0
latency=1
link_id=2
src_node=system.cache_hierarchy.ruby_system.network.routers1
src_outport=
supported_vnets=
weight=1

[system.cache_hierarchy.ruby_system.network.int_links1.buffers0]
type=MessageBuffer
allow_zero_latency=false
buffer_size=0
eventq_index=0
max_dequeue_rate=0
ordered=true
randomization=ruby_system
routing_priority=0

[system.cache_hierarchy.ruby_system.network.int_links1.buffers1]
type=MessageBuffer
allow_zero_latency=false
buffer_size=0
eventq_index=0
max_dequeue_rate=0
ordered=true
randomization=ruby_system
routing_priority=0

[system.cache_hierarchy.ruby_system.network.int_links1.buffers2]
type=MessageBuffer
allow_zero_latency=false
buffer_size=0
eventq_index=0
max_dequeue_rate=0
ordered=true
randomization=ruby_system
routing_priority=0

[system.cache_hierarchy.ruby_system.network.int_links1.buffers3]
type=MessageBuffer
allow_zero_latency=false
buffer_size=0
eventq_index=0
max_dequeue_rate=0
ordered=true
randomization=ruby_system
routing_priority=0

[system.cache_hierarchy.ruby_system.network.int_links1.buffers4]
type=MessageBuffer
allow_zero_latency=false
buffer_size=0
eventq_index=0
max_dequeue_rate=0
ordered=true
randomization=ruby_system
routing_priority=0

[system.cache_hierarchy.ruby_system.network.power_state]
type=PowerState
clk_gate_bins=20
clk_gate_max=1000000000000
clk_gate_min=1000
default_state=UNDEFINED
eventq_index=0
leaders=
possible_states=

[system.cache_hierarchy.ruby_system.network.routers0]
type=Switch
children=port_buffers0 port_buffers1 port_buffers2 port_buffers3 port_buffers4 port_buffers5 port_buffers6 port_buffers7 port_buffers8 port_buffers9 power_state routing_unit
clk_domain=system.clk_domain
eventq_index=0
ext_routing_latency=1
int_routing_latency=1
latency=1
port_buffers=system.cache_hierarchy.ruby_system.network.routers0.port_buffers0 system.cache_hierarchy.ruby_system.network.routers0.port_buffers1 system.cache_hierarchy.ruby_system.network.routers0.port_buffers2 system.cache_hierarchy.ruby_system.network.routers0.port_buffers3 system.cache_hierarchy.ruby_system.network.routers0.port_buffers4 system.cache_hierarchy.ruby_system.network.routers0.port_buffers5 system.cache_hierarchy.ruby_system.network.routers0.port_buffers6 system.cache_hierarchy.ruby_system.network.routers0.port_buffers7 system.cache_hierarchy.ruby_system.network.routers0.port_buffers8 system.cache_hierarchy.ruby_system.network.routers0.port_buffers9
power_model=
power_state=system.cache_hierarchy.ruby_system.network.routers0.power_state
router_id=0
routing_unit=system.cache_hierarchy.ruby_system.network.routers0.routing_unit
virt_nets=5

[system.cache_hierarchy.ruby_system.network.routers0.port_buffers0]
type=MessageBuffer
allow_zero_latency=true
buffer_size=0
eventq_index=0
max_dequeue_rate=0
ordered=true
randomization=ruby_system
routing_priority=0

[system.cache_hierarchy.ruby_system.network.routers0.port_buffers1]
type=MessageBuffer
allow_zero_latency=true
buffer_size=0
eventq_index=0
max_dequeue_rate=0
ordered=true
randomization=ruby_system
routing_priority=0

[system.cache_hierarchy.ruby_system.network.routers0.port_buffers2]
type=MessageBuffer
allow_zero_latency=true
buffer_size=0
eventq_index=0
max_dequeue_rate=0
ordered=true
randomization=ruby_system
routing_priority=0

[system.cache_hierarchy.ruby_system.network.routers0.port_buffers3]
type=MessageBuffer
allow_zero_latency=true
buffer_size=0
eventq_index=0
max_dequeue_rate=0
ordered=true
randomization=ruby_system
routing_priority=0

[system.cache_hierarchy.ruby_system.network.routers0.port_buffers4]
type=MessageBuffer
allow_zero_latency=true
buffer_size=0
eventq_index=0
max_dequeue_rate=0
ordered=true
randomization=ruby_system
routing_priority=0

[system.cache_hierarchy.ruby_system.network.routers0.port_buffers5]
type=MessageBuffer
allow_zero_latency=true
buffer_size=0
eventq_index=0
max_dequeue_rate=0
ordered=true
randomization=ruby_system
routing_priority=0

[system.cache_hierarchy.ruby_system.network.routers0.port_buffers6]
type=MessageBuffer
allow_zero_latency=true
buffer_size=0
eventq_index=0
max_dequeue_rate=0
ordered=true
randomization=ruby_system
routing_priority=0

[system.cache_hierarchy.ruby_system.network.routers0.port_buffers7]
type=MessageBuffer
allow_zero_latency=true
buffer_size=0
eventq_index=0
max_dequeue_rate=0
ordered=true
randomization=ruby_system
routing_priority=0

[system.cache_hierarchy.ruby_system.network.routers0.port_buffers8]
type=MessageBuffer
allow_zero_latency=true
buffer_size=0
eventq_index=0
max_dequeue_rate=0
ordered=true
randomization=ruby_system
routing_priority=0

[system.cache_hierarchy.ruby_system.network.routers0.port_buffers9]
type=MessageBuffer
allow_zero_latency=true
buffer_size=0
eventq_index=0
max_dequeue_rate=0
ordered=true
randomization=ruby_system
routing_priority=0

[system.cache_hierarchy.ruby_system.network.routers0.power_state]
type=PowerState
clk_gate_bins=20
clk_gate_max=1000000000000
clk_gate_min=1000
default_state=UNDEFINED
eventq_index=0
leaders=
possible_states=

[system.cache_hierarchy.ruby_system.network.routers0.routing_unit]
type=WeightBased
adaptive_routing=false
eventq_index=0

[system.cache_hierarchy.ruby_system.network.routers1]
type=Switch
children=port_buffers0 port_buffers1 port_buffers2 port_buffers3 port_buffers4 port_buffers5 port_buffers6 port_buffers7 port_buffers8 port_buffers9 power_state routing_unit
clk_domain=system.clk_domain
eventq_index=0
ext_routing_latency=1
int_routing_latency=1
latency=1
port_buffers=system.cache_hierarchy.ruby_system.network.routers1.port_buffers0 system.cache_hierarchy.ruby_system.network.routers1.port_buffers1 system.cache_hierarchy.ruby_system.network.routers1.port_buffers2 system.cache_hierarchy.ruby_system.network.routers1.port_buffers3 system.cache_hierarchy.ruby_system.network.routers1.port_buffers4 system.cache_hierarchy.ruby_system.network.routers1.port_buffers5 system.cache_hierarchy.ruby_system.network.routers1.port_buffers6 system.cache_hierarchy.ruby_system.network.routers1.port_buffers7 system.cache_hierarchy.ruby_system.network.routers1.port_buffers8 system.cache_hierarchy.ruby_system.network.routers1.port_buffers9
power_model=
power_state=system.cache_hierarchy.ruby_system.network.routers1.power_state
router_id=1
routing_unit=system.cache_hierarchy.ruby_system.network.routers1.routing_unit
virt_nets=5

[system.cache_hierarchy.ruby_system.network.routers1.port_buffers0]
type=MessageBuffer
allow_zero_latency=true
buffer_size=0
eventq_index=0
max_dequeue_rate=0
ordered=true
randomization=ruby_system
routing_priority=0

[system.cache_hierarchy.ruby_system.network.routers1.port_buffers1]
type=MessageBuffer
allow_zero_latency=true
buffer_size=0
eventq_index=0
max_dequeue_rate=0
ordered=true
randomization=ruby_system
routing_priority=0

[system.cache_hierarchy.ruby_system.network.routers1.port_buffers2]
type=MessageBuffer
allow_zero_latency=true
buffer_size=0
eventq_index=0
max_dequeue_rate=0
ordered=true
randomization=ruby_system
routing_priority=0

[system.cache_hierarchy.ruby_system.network.routers1.port_buffers3]
type=MessageBuffer
allow_zero_latency=true
buffer_size=0
eventq_index=0
max_dequeue_rate=0
ordered=true
randomization=ruby_system
routing_priority=0

[system.cache_hierarchy.ruby_system.network.routers1.port_buffers4]
type=MessageBuffer
allow_zero_latency=true
buffer_size=0
eventq_index=0
max_dequeue_rate=0
ordered=true
randomization=ruby_system
routing_priority=0

[system.cache_hierarchy.ruby_system.network.routers1.port_buffers5]
type=MessageBuffer
allow_zero_latency=true
buffer_size=0
eventq_index=0
max_dequeue_rate=0
ordered=true
randomization=ruby_system
routing_priority=0

[system.cache_hierarchy.ruby_system.network.routers1.port_buffers6]
type=MessageBuffer
allow_zero_latency=true
buffer_size=0
eventq_index=0
max_dequeue_rate=0
ordered=true
randomization=ruby_system
routing_priority=0

[system.cache_hierarchy.ruby_system.network.routers1.port_buffers7]
type=MessageBuffer
allow_zero_latency=true
buffer_size=0
eventq_index=0
max_dequeue_rate=0
ordered=true
randomization=ruby_system
routing_priority=0

[system.cache_hierarchy.ruby_system.network.routers1.port_buffers8]
type=MessageBuffer
allow_zero_latency=true
buffer_size=0
eventq_index=0
max_dequeue_rate=0
ordered=true
randomization=ruby_system
routing_priority=0

[system.cache_hierarchy.ruby_system.network.routers1.port_buffers9]
type=MessageBuffer
allow_zero_latency=true
buffer_size=0
eventq_index=0
max_dequeue_rate=0
ordered=true
randomization=ruby_system
routing_priority=0

[system.cache_hierarchy.ruby_system.network.routers1.power_state]
type=PowerState
clk_gate_bins=20
clk_gate_max=1000000000000
clk_gate_min=1000
default_state=UNDEFINED
eventq_index=0
leaders=
possible_states=

[system.cache_hierarchy.ruby_system.network.routers1.routing_unit]
type=WeightBased
adaptive_routing=false
eventq_index=0

[system.cache_hierarchy.ruby_system.power_state]
type=PowerState
clk_gate_bins=20
clk_gate_max=1000000000000
clk_gate_min=1000
default_state=UNDEFINED
eventq_index=0
leaders=
possible_states=

[system.cache_hierarchy.ruby_system.sys_port_proxy]
type=RubyPortProxy
children=power_state
clk_domain=system.clk_domain
eventq_index=0
is_cpu_sequencer=true
no_retry_on_stall=false
power_model=
power_state=system.cache_hierarchy.ruby_system.sys_port_proxy.power_state
ruby_system=system.cache_hierarchy.ruby_system
support_data_reqs=true
support_inst_reqs=true
system=system
using_ruby_tester=false
version=0
in_ports=system.system_port

[system.cache_hierarchy.ruby_system.sys_port_proxy.power_state]
type=PowerState
clk_gate_bins=20
clk_gate_max=1000000000000
clk_gate_min=1000
default_state=UNDEFINED
eventq_index=0
leaders=
possible_states=

[system.clk_domain]
type=SrcClockDomain
children=voltage_domain
clock=1000
domain_id=-1
eventq_index=0
init_perf_level=0
voltage_domain=system.clk_domain.voltage_domain

[system.clk_domain.voltage_domain]
type=VoltageDomain
eventq_index=0
voltage=1.0

[system.dvfs_handler]
type=DVFSHandler
domains=
enable=false
eventq_index=0
sys_clk_domain=system.clk_domain
transition_latency=100000000

[system.memory]
type=SubSystem
children=module
eventq_index=0
thermal_domain=Null

[system.memory.module]
type=SimpleMemory
children=power_state
bandwidth=73.000000
clk_domain=system.clk_domain
collect_stats=true
conf_table_reported=true
eventq_index=0
image_file=
in_addr_map=true
kvm_map=true
latency=30000
latency_var=0
null=false
power_model=
power_state=system.memory.module.power_state
range=0:536870912
writeable=true
port=system.cache_hierarchy.ruby_system.directory_controllers.memory_out_port

[system.memory.module.power_state]
type=PowerState
clk_gate_bins=20
clk_gate_max=1000000000000
clk_gate_min=1000
default_state=UNDEFINED
eventq_index=0
leaders=
possible_states=

[system.processor]
type=SubSystem
children=cores
eventq_index=0
thermal_domain=Null

[system.processor.cores]
type=SubSystem
children=generator port_end
eventq_index=0
thermal_domain=Null

[system.processor.cores.generator]
type=PyTrafficGen
children=power_state
clk_domain=system.clk_domain
cpu_id=-1
elastic_req=false
eventq_index=0
max_outstanding_reqs=0
numThreads=1
power_model=
power_state=system.processor.cores.generator.power_state
progress_check=1000000000
sids=
socket_id=0
ssids=
stream_gen=none
system=system
port=system.cache_hierarchy.ruby_system.controllers.sequencer.in_ports[1]

[system.processor.cores.generator.power_state]
type=PowerState
clk_gate_bins=20
clk_gate_max=1000000000000
clk_gate_min=1000
default_state=UNDEFINED
eventq_index=0
leaders=
possible_states=

[system.processor.cores.port_end]
type=PortTerminator
eventq_index=0
req_ports=system.cache_hierarchy.ruby_system.controllers.sequencer.in_ports[0] system.cache_hierarchy.ruby_system.controllers.sequencer.in_ports[2] system.cache_hierarchy.ruby_system.controllers.sequencer.in_ports[3]

[system.workload]
type=StubWorkload
byte_order=little
entry=0
eventq_index=0
remote_gdb_port=#7000
wait_for_remote_gdb=false

